version 2
1
2
.dc V1 300 300 1{return}.kicad adjustpaths{return}.save all{return}.probe alli
0
